 qgwl_runoff_option = 'all'
 bypass_routing_option = 'none'
