 qgwl_runoff_option = 'negative'
 bypass_routing_option = 'direct_to_outlet'
