 qgwl_runoff_option = 'threshold'
 bypass_routing_option = 'direct_in_place'
